 DIM-GROUP
 3  1
 PRIMVEC
 5.0000000000E+00   0.0000000000E+00   0.0000000000E+00
 0.0000000000E+00   5.0000000000E+00   0.0000000000E+00
 0.0000000000E+00   0.0000000000E+00   5.0000000000E+00
 PRIMCOORD
           5  1
        6    0.0000000000E+00    0.0000000000E+00    0.0000000000E+00
        1    6.7500000000E-01    6.7500000000E-01    6.7500000000E-01
        1   -6.7500000000E-01   -6.7500000000E-01    6.7500000000E-01
        1    6.7500000000E-01   -6.7500000000E-01   -6.7500000000E-01
        1   -6.7500000000E-01    6.7500000000E-01   -6.7500000000E-01
 ATOMS
        6    0.0000000000E+00    0.0000000000E+00    0.0000000000E+00
        1    6.7500000000E-01    6.7500000000E-01    6.7500000000E-01
        1   -6.7500000000E-01   -6.7500000000E-01    6.7500000000E-01
        1    6.7500000000E-01   -6.7500000000E-01   -6.7500000000E-01
        1   -6.7500000000E-01    6.7500000000E-01   -6.7500000000E-01
